&time_control            
start_year               = 2014,2014
start_month              = 03,03
start_day                = 01,01
start_hour               = 00,00
start_minute             = 00,00
start_second             = 00,00
end_year                 = 2014,2014
end_month                = 04,04
end_day                  = 01,01
end_hour                 = 06,06
end_minute               = 00,00
end_second               = 00,00
interval_seconds         = 21600,
input_from_file          = .true.,.true.
history_interval         = 60,60
frames_per_auxinput5     = 12,12
frames_per_outfile       = 1,1
restart                  = .false.,
restart_interval         = 720,
auxinput5_interval       = 60,60,
io_form_history          = 2
io_form_restart          = 2
io_form_input            = 2
io_form_boundary         = 2
io_form_auxinput5       = 2
io_form_auxinput12       = 2
debug_level                         = 0 
auxinput1_inname                    = "met_em.d<domain>.<date>"
auxinput5_inname		="wrfchemi_d<domain>_<date>"
auxinput12_inname  = "wrf_chem_input"
force_use_old_data                  = .true.,
/


&domains
eta_levels               = 1.000,0.995,0.988,0.980,0.970,0.956,
                           0.938,0.916,0.893,0.868,0.839,0.808,
                           0.777,0.744,0.702,0.648,0.582,0.500,
                           0.400,0.300,0.200,0.120,0.052,0.000,
time_step                = 150,
time_step_fract_num      = 0,
time_step_fract_den      = 1,
max_dom                  = 1,
e_we                     = 233,181,
e_sn                     = 183,169,
e_vert                   = 24,24,
dx                       = 27000,     9000,
dy                       = 27000,     9000,
grid_id                  = 1,        2,
parent_id                = 1,        1,
i_parent_start           = 1,       106,
j_parent_start           = 1,       72,
parent_grid_ratio        = 1,        3,
parent_time_step_ratio   = 1,        3,
feedback                 = 0,
smooth_option            = 0,
num_metgrid_levels       = 27,
num_metgrid_soil_levels  = 4,
p_top_requested          = 5000,
nproc_x                  = 16,
nproc_y                  = 14,
/


&physics
 mp_physics                          = 10,     10,     3,
 progn                               = 1,      1,
 naer                                = 1e9,   1e9,
 ra_lw_physics                       = 4,     4,     1,
 ra_sw_physics                       = 4,     4,     1,
 radt                                = 10,     10,    30,
 cam_abs_freq_s                      = 21600,
 levsiz                              = 59,
 paerlev                             = 29,
 cam_abs_dim1                        = 4,
 cam_abs_dim2                        = 67,
 sf_sfclay_physics                   = 2,     7,     1,
 sf_surface_physics                  = 4,     7,     1,
 bl_pbl_physics                      = 8,     7,     1,
 megan_factors_file                  = 'megan21_emis_factors_c20130304.nc'
 input_pft                           = .false.,
 bldt                                = 0,     0,     0,
 cu_physics                          = 3,     3,     0,
 cudt                                = 5,     5,     5,
 isfflx                              = 1,
 ifsnow                              = 1,
 icloud                              = 1,
 surface_input_source                = 1,
 num_soil_layers                     = 2,
 pxlsm_smois_init                    = 0,
 num_land_cat                        = 21,
 sf_urban_physics                    = 0,     0,
 mp_zero_out                         = 2,
 mp_zero_out_thresh                  = 1.e-10,
 maxiens                             = 1,
 maxens                              = 3,
 maxens2                             = 3,
 maxens3                             = 16,
 ensdim                              = 144,
 cu_rad_feedback                     = .false.,
 cu_diag                             = 1,     1,
/

 &dynamics
rk_ord                              = 3,
w_damping                           = 1,
diff_opt                            = 1,
km_opt                              = 4,
diff_6th_opt                        = 0,  0,
diff_6th_factor                     = 0.12, 0.12,
 base_temp                           = 290.,
 damp_opt                            = 0,
 zdamp                               = 5000.,  5000.,  5000.,
 dampcoef                            = 0.2,    0.2,    0.2,
 khdif                               = 0,      0,      0,
 kvdif                               = 0,      0,      0,
 non_hydrostatic                     = .true., .true., .true.,
time_step_sound                     = 4,      4,      0,
h_mom_adv_order                     = 5,      5,      5,
v_mom_adv_order                     = 3,      3,      3,
h_sca_adv_order                     = 5,      5,      5,
v_sca_adv_order                     = 3,      3,      3,
moist_adv_opt                       = 2,      2,      2,
scalar_adv_opt                      = 2,      2,      2,
chem_adv_opt                        = 2,      2,      2,
tke_adv_opt                         = 2,      2,      2,
 /

&bdy_control             
spec_bdy_width                      = 5,
spec_zone                           = 1,
relax_zone                          = 4,
specified                           = .true., .false.,
nested                              = .false., .true., 
/

&chem
kemit                               = 14,
chem_opt                            = 209,209,
bioemdt                             = 0.5,0.5,
photdt                              = 15.,15.,
chemdt                              = 5.0,5.0,
emiss_inpt_opt                      = 102,102,
io_style_emissions                  = 2,
ndepvel                             = 598, 
chem_in_opt                         = 1,1,
phot_opt                            = 2,2,
gas_drydep_opt                      = 1,1,
aer_drydep_opt                      = 311,311,
aer_aerodynres_opt                  = 1,1,
bio_emiss_opt                       = 3,3,
emiss_opt                           = 13,13,
dmsemis_opt                         = 1,
ne_area                             = 600,
seas_opt                            = 2,
dust_opt                            = 13,
gas_bc_opt                          = 101,101,
gas_ic_opt                          = 101,101,
aer_bc_opt                          = 101,101,
aer_ic_opt                          = 101,101,
gaschem_onoff                       = 1,1,
aerchem_onoff                       = 1,1,
vertmix_onoff                       = 1,1,
wetscav_onoff                       = 1,1,
cldchem_onoff                       = 1,1,
aer_ra_feedback                     = 1,1,
aer_op_opt                          = 1,1,
diagnostic_chem                     = 2,2
chem_conv_tr                        = 1,1,
conv_tr_wetscav                     = 1,1,
have_bcs_chem                       = .true.,
/


&namelist_quilt          
nio_tasks_per_group      = 0,
nio_groups               = 1,
/
                                                                                                                                                      
